
**** 01/22/22 10:43:39 ********* PSpice 9.2 (Mar 2000) ******** ID# 1 ********

 ** Profile: "SCHEMATIC1-2"  [ C:\USERS\SAEED\DESKTOP\pspicee\2-SCHEMATIC1-2.sim ] 


 ****     CIRCUIT DESCRIPTION


******************************************************************************




** Creating circuit file "2-SCHEMATIC1-2.sim.cir" 
** WARNING: THIS AUTOMATICALLY GENERATED FILE MAY BE OVERWRITTEN BY SUBSEQUENT SIMULATIONS

*Libraries: 
* Local Libraries :
* From [PSPICE NETLIST] section of C:\Program Files\Orcad\PSpice\PSpice.ini file:
.lib "nom.lib" 

*Analysis directives: 
.TRAN  0 1000ns 0 1u 
.PROBE V(*) I(*) W(*) D(*) NOISE(*) 
.INC ".\2-SCHEMATIC1.net" 



**** INCLUDING 2-SCHEMATIC1.net ****
* source 2
M_M1         N00140 N00140 N00169 N00169 M2SJ102
M_M2         N00169 N00169 N00200 N00200 M2SJ102
M_M3         N00200 N00200 0 0 M2SJ102
V_V1         N00140 0 1vdc

**** RESUMING 2-SCHEMATIC1-2.sim.cir ****
.END

**** 01/22/22 10:43:39 ********* PSpice 9.2 (Mar 2000) ******** ID# 1 ********

 ** Profile: "SCHEMATIC1-2"  [ C:\USERS\SAEED\DESKTOP\pspicee\2-SCHEMATIC1-2.sim ] 


 ****     MOSFET MODEL PARAMETERS


******************************************************************************




               M2SJ102         
               PMOS            
       LEVEL    3            
           L    2.000000E-06 
           W     .55         
         VTO    -.8464       
          KP  517.600000E-09 
       GAMMA    0            
         PHI     .6          
      LAMBDA    0            
          RS     .02         
          RG   43.92         
          RB     .05108      
         RDS   50.000000E+03 
          IS  170.400000E-18 
          JS    0            
           N     .7688       
          PB     .8          
        PBSW     .8          
         CBD    1.598000E-09 
          CJ    0            
        CJSW    0            
        CGSO  266.400000E-12 
        CGDO  684.200000E-12 
        CGBO    0            
         TOX    2.000000E-06 
          XJ    0            
          UO  300            
       UCRIT   10.000000E+03 
       DELTA    0            
         ETA    0            
      DIOMOD    1            
         VFB    0            
        LETA    0            
        WETA    0            
          U0    0            
        TEMP    0            
         VDD    0            
       XPART    0            


**** 01/22/22 10:43:39 ********* PSpice 9.2 (Mar 2000) ******** ID# 1 ********

 ** Profile: "SCHEMATIC1-2"  [ C:\USERS\SAEED\DESKTOP\pspicee\2-SCHEMATIC1-2.sim ] 


 ****     INITIAL TRANSIENT SOLUTION       TEMPERATURE =   27.000 DEG C


******************************************************************************



 NODE   VOLTAGE     NODE   VOLTAGE     NODE   VOLTAGE     NODE   VOLTAGE


(N00140)    1.0000 (N00169)     .6667 (N00200)     .3333 




    VOLTAGE SOURCE CURRENTS
    NAME         CURRENT

    V_V1        -6.670E-06

    TOTAL POWER DISSIPATION   6.67E-06  WATTS



          JOB CONCLUDED

          TOTAL JOB TIME             .09
