
**** 01/22/22 11:16:52 ********* PSpice 9.2 (Mar 2000) ******** ID# 1 ********

 ** Profile: "SCHEMATIC1-3"  [ C:\USERS\SAEED\DESKTOP\pspicee\3-SCHEMATIC1-3.sim ] 


 ****     CIRCUIT DESCRIPTION


******************************************************************************




** Creating circuit file "3-SCHEMATIC1-3.sim.cir" 
** WARNING: THIS AUTOMATICALLY GENERATED FILE MAY BE OVERWRITTEN BY SUBSEQUENT SIMULATIONS

*Libraries: 
* Local Libraries :
* From [PSPICE NETLIST] section of C:\Program Files\Orcad\PSpice\PSpice.ini file:
.lib "nom.lib" 

*Analysis directives: 
.TRAN  0 10ms 0 1u 
.PROBE V(*) I(*) W(*) D(*) NOISE(*) 
.INC ".\3-SCHEMATIC1.net" 



**** INCLUDING 3-SCHEMATIC1.net ****
* source 3
X_U1         N00364 N00293 N00408 M_UN0001 $G_DPWR $G_DGND DFF
X_U2         N00485 N00293 N00527 N01618 $G_DPWR $G_DGND DFF
X_U3         N00408 N00450  $G_DPWR $G_DGND INV
X_U4         N00450 N00485  $G_DPWR $G_DGND INV
V_V2         N00750 N00811  
+PULSE 0 1 1n 1n 1n 1m 2m
X_U5         N00527 N00750 N00364 $G_DPWR $G_DGND NOR2
V_V1         N00293 N00811  
+PULSE 1 0 1n 1n 1n 1m 2m

**** RESUMING 3-SCHEMATIC1-3.sim.cir ****
.END


**** Generated AtoD and DtoA Interfaces ****

*
* Analog/Digital interface for node N00750
*
* Moving X_U5.U1:IN2 from analog node N00750 to new digital node N00750$AtoD
X$N00750_AtoD1
+ N00750
+ N00750$AtoD
+ $G_DPWR
+ $G_DGND
+ AtoDdefault
+       PARAMS: CAPACITANCE=   0     
*
* Analog/Digital interface for node N00293
*
* Moving X_U2.U1:CLK from analog node N00293 to new digital node N00293$AtoD
X$N00293_AtoD1
+ N00293
+ N00293$AtoD
+ $G_DPWR
+ $G_DGND
+ AtoDdefault
+       PARAMS: CAPACITANCE=   0     
* Moving X_U1.U1:CLK from analog node N00293 to new digital node N00293$AtoD2
X$N00293_AtoD2
+ N00293
+ N00293$AtoD2
+ $G_DPWR
+ $G_DGND
+ AtoDdefault
+       PARAMS: CAPACITANCE=   0     
*
* Analog/Digital interface power supply subcircuits
*

X$DIGIFPWR 0 DIGIFPWR

**** 01/22/22 11:16:52 ********* PSpice 9.2 (Mar 2000) ******** ID# 1 ********

 ** Profile: "SCHEMATIC1-3"  [ C:\USERS\SAEED\DESKTOP\pspicee\3-SCHEMATIC1-3.sim ] 


 ****     Digital Output MODEL PARAMETERS


******************************************************************************




               DO74            
        FILE DSO_ATOD        
      FORMAT    6            
     CHGONLY    1            
    TIMESTEP  100.000000E-12 
      S0NAME X               
       S0VHI    2            
       S0VLO     .8          
      S1NAME 0               
       S1VHI     .8          
       S1VLO   -1.5          
      S2NAME R               
       S2VHI    1.4          
       S2VLO     .8          
      S3NAME R               
       S3VHI    2            
       S3VLO    1.3          
      S4NAME X               
       S4VHI    2            
       S4VLO     .8          
      S5NAME 1               
       S5VHI    7            
       S5VLO    2            
      S6NAME F               
       S6VHI    2            
       S6VLO    1.3          
      S7NAME F               
       S7VHI    1.4          
       S7VLO     .8          


**** 01/22/22 11:16:52 ********* PSpice 9.2 (Mar 2000) ******** ID# 1 ********

 ** Profile: "SCHEMATIC1-3"  [ C:\USERS\SAEED\DESKTOP\pspicee\3-SCHEMATIC1-3.sim ] 


 ****     Digital Gate MODEL PARAMETERS


******************************************************************************




               D_PLD_GATE      
      TPLHMN    0            
      TPLHTY    0            
      TPLHMX    0            
      TPHLMN    0            
      TPHLTY    0            
      TPHLMX    0            


**** 01/22/22 11:16:52 ********* PSpice 9.2 (Mar 2000) ******** ID# 1 ********

 ** Profile: "SCHEMATIC1-3"  [ C:\USERS\SAEED\DESKTOP\pspicee\3-SCHEMATIC1-3.sim ] 


 ****     Digital Edge Triggered FF MODEL PARAMETERS


******************************************************************************




               D_PLD_EFF       
  TPCLKQLHMN    0            
  TPCLKQLHTY    0            
  TPCLKQLHMX    0            
  TPCLKQHLMN    0            
  TPCLKQHLTY    0            
  TPCLKQHLMX    0            
   TPPCQLHMN    0            
   TPPCQLHTY    0            
   TPPCQLHMX    0            
   TPPCQHLMN    0            
   TPPCQHLTY    0            
   TPPCQHLMX    0            
    TWCLKLMN    0            
    TWCLKLTY    0            
    TWCLKLMX    0            
    TWCLKHMN    0            
    TWCLKHTY    0            
    TWCLKHMX    0            
     TWPCLMN    0            
     TWPCLTY    0            
     TWPCLMX    0            
   TSUDCLKMN    0            
   TSUDCLKTY    0            
   TSUDCLKMX    0            
 TSUPCCLKHMN    0            
 TSUPCCLKHTY    0            
 TSUPCCLKHMX    0            
    THDCLKMN    0            
    THDCLKTY    0            
    THDCLKMX    0            
  TSUCECLKMN    0            
  TSUCECLKTY    0            
  TSUCECLKMX    0            
   THCECLKMN    0            
   THCECLKTY    0            
   THCECLKMX    0            


**** 01/22/22 11:16:52 ********* PSpice 9.2 (Mar 2000) ******** ID# 1 ********

 ** Profile: "SCHEMATIC1-3"  [ C:\USERS\SAEED\DESKTOP\pspicee\3-SCHEMATIC1-3.sim ] 


 ****     Digital IO  MODEL PARAMETERS


******************************************************************************




               IO_PLD          IO_DFT          
       AtoD1                 AtoD_STD        
       AtoD2                 AtoD_STD_NX     
       AtoD3                 AtoD_STD        
       AtoD4                 AtoD_STD_NX     
       DtoA1                 DtoA_STD        
       DtoA2                 DtoA_STD        
       DtoA3                 DtoA_STD        
       DtoA4                 DtoA_STD        
       TPWRT  100.000000E+03  100.000000E+03 


**** 01/22/22 11:16:52 ********* PSpice 9.2 (Mar 2000) ******** ID# 1 ********

 ** Profile: "SCHEMATIC1-3"  [ C:\USERS\SAEED\DESKTOP\pspicee\3-SCHEMATIC1-3.sim ] 


 ****     INITIAL TRANSIENT SOLUTION       TEMPERATURE =   27.000 DEG C


******************************************************************************



 NODE   VOLTAGE     NODE   VOLTAGE     NODE   VOLTAGE     NODE   VOLTAGE


(N00293)     .3333 (N00750)    -.6667 (N00811)    -.6667 ($G_DGND)    0.0000    

($G_DPWR)    5.0000                   



 DGTL NODE : STATE  DGTL NODE : STATE  DGTL NODE : STATE  DGTL NODE : STATE


(  N00408) : X     (  N00485) : X     (   $D_HI) : 1     (M_UN0001) : X         

(  N01618) : X     (  N00364) : X     (N00293$AtoD) : 0  (  N00527) : X         

(  N00450) : X     (N00750$AtoD) : 0  (N00293$AtoD2) : 0                    




    VOLTAGE SOURCE CURRENTS
    NAME         CURRENT

    V_V2         6.667E-13
    V_V1        -6.667E-13
    X$DIGIFPWR.VDPWR  -5.000E-06
    X$DIGIFPWR.VDGND  -5.000E-06

    TOTAL POWER DISSIPATION   2.50E-05  WATTS



          JOB CONCLUDED

          TOTAL JOB TIME             .34
